.title Crossbar Circuit
.lib /root/miniforge3/share/pdk/sky130A/libs.tech/ngspice/sky130.lib.spice tt
.subckt mlp NUDGED FREE X_0 X_1 X_2 Y_0_NUDGED Y_1_NUDGED
.subckt synapse WWL WBL RIN ROUT
Swrite_nfet MEM WBL WWL 0 switch
Ccap MEM ROUT 5.0pF capacitor
Mread_nfet ROUT MEM RIN RIN NMOSS l=5e-06 w=5e-06
.ends synapse

.subckt amplifier IN OUT
Bvcvs OUT 0 v={0 + 2 * (V(IN)-0)}
Bcccs INN 0 i={-0.5 * I(Bvcvs)}
Rmeas IN INN 0.001Ohm
Vdiou DIOU IN -0.25V
Ddiou DIOU 0 diode
.ends amplifier

.subckt optimizer1 WBL FREE NUDGED UPDATE NUDGED_OUTER
Bopamp OUT 0 v={V(WBL)*V(NUDGED_OUTER)/1.95}
Sstore OUT STORE NUDGED 0 switch
Cstore STORE 0 0.05pF capacitor
Sread STORE WBL UPDATE 0 switch
.ends optimizer1

.subckt optimizer100 WBL FREE NUDGED UPDATE NUDGED_OUTER
Bopamp OUT 0 v={V(WBL)*V(NUDGED_OUTER)/1.95}
Sstore OUT STORE NUDGED 0 switch
Cstore STORE 0 5.0pF capacitor
Sread STORE WBL UPDATE 0 switch
.ends optimizer100
Xweight_I0_H0 WWL_I0 WBL_IN_H0 X_0 IN_H0 synapse
Xweight_I1_H0 WWL_I1 WBL_IN_H0 X_1 IN_H0 synapse
Xweight_I2_H0 WWL_I2 WBL_IN_H0 X_2 IN_H0 synapse
Xact_H0 IN_H0 OUT_H0 amplifier
Xweight_J0_H0 WWL_J0 WBL_OUT_H0 OUT_H0 Y_0 synapse
Xweight_J1_H0 WWL_J1 WBL_OUT_H0 OUT_H0 Y_1 synapse
Xoptim_IN_H0 WBL_IN_H0 FREE NUDGED UPDATE NUDGED_OUTER optimizer100
Sset_IN_H0 SET_IN_H0 WBL_IN_H0 SET 0 switch
SGND_IN_H0 IN_H0 0 SET 0 switch
Xoptim_OUT_H0 WBL_OUT_H0 FREE NUDGED UPDATE NUDGED_OUTER optimizer1
Sset_OUT_H0 SET_OUT_H0 WBL_OUT_H0 SET 0 switch
SGND_OUT_H0 OUT_H0 0 SET 0 switch
Xweight_I0_H1 WWL_I0 WBL_IN_H1 X_0 IN_H1 synapse
Xweight_I1_H1 WWL_I1 WBL_IN_H1 X_1 IN_H1 synapse
Xweight_I2_H1 WWL_I2 WBL_IN_H1 X_2 IN_H1 synapse
Xact_H1 IN_H1 OUT_H1 amplifier
Xweight_J0_H1 WWL_J0 WBL_OUT_H1 OUT_H1 Y_0 synapse
Xweight_J1_H1 WWL_J1 WBL_OUT_H1 OUT_H1 Y_1 synapse
Xoptim_IN_H1 WBL_IN_H1 FREE NUDGED UPDATE NUDGED_OUTER optimizer100
Sset_IN_H1 SET_IN_H1 WBL_IN_H1 SET 0 switch
SGND_IN_H1 IN_H1 0 SET 0 switch
Xoptim_OUT_H1 WBL_OUT_H1 FREE NUDGED UPDATE NUDGED_OUTER optimizer1
Sset_OUT_H1 SET_OUT_H1 WBL_OUT_H1 SET 0 switch
SGND_OUT_H1 OUT_H1 0 SET 0 switch
Xweight_I0_H2 WWL_I0 WBL_IN_H2 X_0 IN_H2 synapse
Xweight_I1_H2 WWL_I1 WBL_IN_H2 X_1 IN_H2 synapse
Xweight_I2_H2 WWL_I2 WBL_IN_H2 X_2 IN_H2 synapse
Xact_H2 IN_H2 OUT_H2 amplifier
Xweight_J0_H2 WWL_J0 WBL_OUT_H2 OUT_H2 Y_0 synapse
Xweight_J1_H2 WWL_J1 WBL_OUT_H2 OUT_H2 Y_1 synapse
Xoptim_IN_H2 WBL_IN_H2 FREE NUDGED UPDATE NUDGED_OUTER optimizer100
Sset_IN_H2 SET_IN_H2 WBL_IN_H2 SET 0 switch
SGND_IN_H2 IN_H2 0 SET 0 switch
Xoptim_OUT_H2 WBL_OUT_H2 FREE NUDGED UPDATE NUDGED_OUTER optimizer1
Sset_OUT_H2 SET_OUT_H2 WBL_OUT_H2 SET 0 switch
SGND_OUT_H2 OUT_H2 0 SET 0 switch
Xweight_I0_H3 WWL_I0 WBL_IN_H3 X_0 IN_H3 synapse
Xweight_I1_H3 WWL_I1 WBL_IN_H3 X_1 IN_H3 synapse
Xweight_I2_H3 WWL_I2 WBL_IN_H3 X_2 IN_H3 synapse
Xact_H3 IN_H3 OUT_H3 amplifier
Xweight_J0_H3 WWL_J0 WBL_OUT_H3 OUT_H3 Y_0 synapse
Xweight_J1_H3 WWL_J1 WBL_OUT_H3 OUT_H3 Y_1 synapse
Xoptim_IN_H3 WBL_IN_H3 FREE NUDGED UPDATE NUDGED_OUTER optimizer100
Sset_IN_H3 SET_IN_H3 WBL_IN_H3 SET 0 switch
SGND_IN_H3 IN_H3 0 SET 0 switch
Xoptim_OUT_H3 WBL_OUT_H3 FREE NUDGED UPDATE NUDGED_OUTER optimizer1
Sset_OUT_H3 SET_OUT_H3 WBL_OUT_H3 SET 0 switch
SGND_OUT_H3 OUT_H3 0 SET 0 switch
Xweight_I0_H4 WWL_I0 WBL_IN_H4 X_0 IN_H4 synapse
Xweight_I1_H4 WWL_I1 WBL_IN_H4 X_1 IN_H4 synapse
Xweight_I2_H4 WWL_I2 WBL_IN_H4 X_2 IN_H4 synapse
Xact_H4 IN_H4 OUT_H4 amplifier
Xweight_J0_H4 WWL_J0 WBL_OUT_H4 OUT_H4 Y_0 synapse
Xweight_J1_H4 WWL_J1 WBL_OUT_H4 OUT_H4 Y_1 synapse
Xoptim_IN_H4 WBL_IN_H4 FREE NUDGED UPDATE NUDGED_OUTER optimizer100
Sset_IN_H4 SET_IN_H4 WBL_IN_H4 SET 0 switch
SGND_IN_H4 IN_H4 0 SET 0 switch
Xoptim_OUT_H4 WBL_OUT_H4 FREE NUDGED UPDATE NUDGED_OUTER optimizer1
Sset_OUT_H4 SET_OUT_H4 WBL_OUT_H4 SET 0 switch
SGND_OUT_H4 OUT_H4 0 SET 0 switch
Xweight_I0_H5 WWL_I0 WBL_IN_H5 X_0 IN_H5 synapse
Xweight_I1_H5 WWL_I1 WBL_IN_H5 X_1 IN_H5 synapse
Xweight_I2_H5 WWL_I2 WBL_IN_H5 X_2 IN_H5 synapse
Xact_H5 IN_H5 OUT_H5 amplifier
Xweight_J0_H5 WWL_J0 WBL_OUT_H5 OUT_H5 Y_0 synapse
Xweight_J1_H5 WWL_J1 WBL_OUT_H5 OUT_H5 Y_1 synapse
Xoptim_IN_H5 WBL_IN_H5 FREE NUDGED UPDATE NUDGED_OUTER optimizer100
Sset_IN_H5 SET_IN_H5 WBL_IN_H5 SET 0 switch
SGND_IN_H5 IN_H5 0 SET 0 switch
Xoptim_OUT_H5 WBL_OUT_H5 FREE NUDGED UPDATE NUDGED_OUTER optimizer1
Sset_OUT_H5 SET_OUT_H5 WBL_OUT_H5 SET 0 switch
SGND_OUT_H5 OUT_H5 0 SET 0 switch
Xweight_I0_H6 WWL_I0 WBL_IN_H6 X_0 IN_H6 synapse
Xweight_I1_H6 WWL_I1 WBL_IN_H6 X_1 IN_H6 synapse
Xweight_I2_H6 WWL_I2 WBL_IN_H6 X_2 IN_H6 synapse
Xact_H6 IN_H6 OUT_H6 amplifier
Xweight_J0_H6 WWL_J0 WBL_OUT_H6 OUT_H6 Y_0 synapse
Xweight_J1_H6 WWL_J1 WBL_OUT_H6 OUT_H6 Y_1 synapse
Xoptim_IN_H6 WBL_IN_H6 FREE NUDGED UPDATE NUDGED_OUTER optimizer100
Sset_IN_H6 SET_IN_H6 WBL_IN_H6 SET 0 switch
SGND_IN_H6 IN_H6 0 SET 0 switch
Xoptim_OUT_H6 WBL_OUT_H6 FREE NUDGED UPDATE NUDGED_OUTER optimizer1
Sset_OUT_H6 SET_OUT_H6 WBL_OUT_H6 SET 0 switch
SGND_OUT_H6 OUT_H6 0 SET 0 switch
Xweight_I0_H7 WWL_I0 WBL_IN_H7 X_0 IN_H7 synapse
Xweight_I1_H7 WWL_I1 WBL_IN_H7 X_1 IN_H7 synapse
Xweight_I2_H7 WWL_I2 WBL_IN_H7 X_2 IN_H7 synapse
Xact_H7 IN_H7 OUT_H7 amplifier
Xweight_J0_H7 WWL_J0 WBL_OUT_H7 OUT_H7 Y_0 synapse
Xweight_J1_H7 WWL_J1 WBL_OUT_H7 OUT_H7 Y_1 synapse
Xoptim_IN_H7 WBL_IN_H7 FREE NUDGED UPDATE NUDGED_OUTER optimizer100
Sset_IN_H7 SET_IN_H7 WBL_IN_H7 SET 0 switch
SGND_IN_H7 IN_H7 0 SET 0 switch
Xoptim_OUT_H7 WBL_OUT_H7 FREE NUDGED UPDATE NUDGED_OUTER optimizer1
Sset_OUT_H7 SET_OUT_H7 WBL_OUT_H7 SET 0 switch
SGND_OUT_H7 OUT_H7 0 SET 0 switch
Xweight_I0_H8 WWL_I0 WBL_IN_H8 X_0 IN_H8 synapse
Xweight_I1_H8 WWL_I1 WBL_IN_H8 X_1 IN_H8 synapse
Xweight_I2_H8 WWL_I2 WBL_IN_H8 X_2 IN_H8 synapse
Xact_H8 IN_H8 OUT_H8 amplifier
Xweight_J0_H8 WWL_J0 WBL_OUT_H8 OUT_H8 Y_0 synapse
Xweight_J1_H8 WWL_J1 WBL_OUT_H8 OUT_H8 Y_1 synapse
Xoptim_IN_H8 WBL_IN_H8 FREE NUDGED UPDATE NUDGED_OUTER optimizer100
Sset_IN_H8 SET_IN_H8 WBL_IN_H8 SET 0 switch
SGND_IN_H8 IN_H8 0 SET 0 switch
Xoptim_OUT_H8 WBL_OUT_H8 FREE NUDGED UPDATE NUDGED_OUTER optimizer1
Sset_OUT_H8 SET_OUT_H8 WBL_OUT_H8 SET 0 switch
SGND_OUT_H8 OUT_H8 0 SET 0 switch
Xweight_I0_H9 WWL_I0 WBL_IN_H9 X_0 IN_H9 synapse
Xweight_I1_H9 WWL_I1 WBL_IN_H9 X_1 IN_H9 synapse
Xweight_I2_H9 WWL_I2 WBL_IN_H9 X_2 IN_H9 synapse
Xact_H9 IN_H9 OUT_H9 amplifier
Xweight_J0_H9 WWL_J0 WBL_OUT_H9 OUT_H9 Y_0 synapse
Xweight_J1_H9 WWL_J1 WBL_OUT_H9 OUT_H9 Y_1 synapse
Xoptim_IN_H9 WBL_IN_H9 FREE NUDGED UPDATE NUDGED_OUTER optimizer100
Sset_IN_H9 SET_IN_H9 WBL_IN_H9 SET 0 switch
SGND_IN_H9 IN_H9 0 SET 0 switch
Xoptim_OUT_H9 WBL_OUT_H9 FREE NUDGED UPDATE NUDGED_OUTER optimizer1
Sset_OUT_H9 SET_OUT_H9 WBL_OUT_H9 SET 0 switch
SGND_OUT_H9 OUT_H9 0 SET 0 switch
Xweight_I0_H10 WWL_I0 WBL_IN_H10 X_0 IN_H10 synapse
Xweight_I1_H10 WWL_I1 WBL_IN_H10 X_1 IN_H10 synapse
Xweight_I2_H10 WWL_I2 WBL_IN_H10 X_2 IN_H10 synapse
Xact_H10 IN_H10 OUT_H10 amplifier
Xweight_J0_H10 WWL_J0 WBL_OUT_H10 OUT_H10 Y_0 synapse
Xweight_J1_H10 WWL_J1 WBL_OUT_H10 OUT_H10 Y_1 synapse
Xoptim_IN_H10 WBL_IN_H10 FREE NUDGED UPDATE NUDGED_OUTER optimizer100
Sset_IN_H10 SET_IN_H10 WBL_IN_H10 SET 0 switch
SGND_IN_H10 IN_H10 0 SET 0 switch
Xoptim_OUT_H10 WBL_OUT_H10 FREE NUDGED UPDATE NUDGED_OUTER optimizer1
Sset_OUT_H10 SET_OUT_H10 WBL_OUT_H10 SET 0 switch
SGND_OUT_H10 OUT_H10 0 SET 0 switch
Xweight_I0_H11 WWL_I0 WBL_IN_H11 X_0 IN_H11 synapse
Xweight_I1_H11 WWL_I1 WBL_IN_H11 X_1 IN_H11 synapse
Xweight_I2_H11 WWL_I2 WBL_IN_H11 X_2 IN_H11 synapse
Xact_H11 IN_H11 OUT_H11 amplifier
Xweight_J0_H11 WWL_J0 WBL_OUT_H11 OUT_H11 Y_0 synapse
Xweight_J1_H11 WWL_J1 WBL_OUT_H11 OUT_H11 Y_1 synapse
Xoptim_IN_H11 WBL_IN_H11 FREE NUDGED UPDATE NUDGED_OUTER optimizer100
Sset_IN_H11 SET_IN_H11 WBL_IN_H11 SET 0 switch
SGND_IN_H11 IN_H11 0 SET 0 switch
Xoptim_OUT_H11 WBL_OUT_H11 FREE NUDGED UPDATE NUDGED_OUTER optimizer1
Sset_OUT_H11 SET_OUT_H11 WBL_OUT_H11 SET 0 switch
SGND_OUT_H11 OUT_H11 0 SET 0 switch
Xweight_I0_H12 WWL_I0 WBL_IN_H12 X_0 IN_H12 synapse
Xweight_I1_H12 WWL_I1 WBL_IN_H12 X_1 IN_H12 synapse
Xweight_I2_H12 WWL_I2 WBL_IN_H12 X_2 IN_H12 synapse
Xact_H12 IN_H12 OUT_H12 amplifier
Xweight_J0_H12 WWL_J0 WBL_OUT_H12 OUT_H12 Y_0 synapse
Xweight_J1_H12 WWL_J1 WBL_OUT_H12 OUT_H12 Y_1 synapse
Xoptim_IN_H12 WBL_IN_H12 FREE NUDGED UPDATE NUDGED_OUTER optimizer100
Sset_IN_H12 SET_IN_H12 WBL_IN_H12 SET 0 switch
SGND_IN_H12 IN_H12 0 SET 0 switch
Xoptim_OUT_H12 WBL_OUT_H12 FREE NUDGED UPDATE NUDGED_OUTER optimizer1
Sset_OUT_H12 SET_OUT_H12 WBL_OUT_H12 SET 0 switch
SGND_OUT_H12 OUT_H12 0 SET 0 switch
Xweight_I0_H13 WWL_I0 WBL_IN_H13 X_0 IN_H13 synapse
Xweight_I1_H13 WWL_I1 WBL_IN_H13 X_1 IN_H13 synapse
Xweight_I2_H13 WWL_I2 WBL_IN_H13 X_2 IN_H13 synapse
Xact_H13 IN_H13 OUT_H13 amplifier
Xweight_J0_H13 WWL_J0 WBL_OUT_H13 OUT_H13 Y_0 synapse
Xweight_J1_H13 WWL_J1 WBL_OUT_H13 OUT_H13 Y_1 synapse
Xoptim_IN_H13 WBL_IN_H13 FREE NUDGED UPDATE NUDGED_OUTER optimizer100
Sset_IN_H13 SET_IN_H13 WBL_IN_H13 SET 0 switch
SGND_IN_H13 IN_H13 0 SET 0 switch
Xoptim_OUT_H13 WBL_OUT_H13 FREE NUDGED UPDATE NUDGED_OUTER optimizer1
Sset_OUT_H13 SET_OUT_H13 WBL_OUT_H13 SET 0 switch
SGND_OUT_H13 OUT_H13 0 SET 0 switch
Xweight_I0_H14 WWL_I0 WBL_IN_H14 X_0 IN_H14 synapse
Xweight_I1_H14 WWL_I1 WBL_IN_H14 X_1 IN_H14 synapse
Xweight_I2_H14 WWL_I2 WBL_IN_H14 X_2 IN_H14 synapse
Xact_H14 IN_H14 OUT_H14 amplifier
Xweight_J0_H14 WWL_J0 WBL_OUT_H14 OUT_H14 Y_0 synapse
Xweight_J1_H14 WWL_J1 WBL_OUT_H14 OUT_H14 Y_1 synapse
Xoptim_IN_H14 WBL_IN_H14 FREE NUDGED UPDATE NUDGED_OUTER optimizer100
Sset_IN_H14 SET_IN_H14 WBL_IN_H14 SET 0 switch
SGND_IN_H14 IN_H14 0 SET 0 switch
Xoptim_OUT_H14 WBL_OUT_H14 FREE NUDGED UPDATE NUDGED_OUTER optimizer1
Sset_OUT_H14 SET_OUT_H14 WBL_OUT_H14 SET 0 switch
SGND_OUT_H14 OUT_H14 0 SET 0 switch
Xweight_I0_H15 WWL_I0 WBL_IN_H15 X_0 IN_H15 synapse
Xweight_I1_H15 WWL_I1 WBL_IN_H15 X_1 IN_H15 synapse
Xweight_I2_H15 WWL_I2 WBL_IN_H15 X_2 IN_H15 synapse
Xact_H15 IN_H15 OUT_H15 amplifier
Xweight_J0_H15 WWL_J0 WBL_OUT_H15 OUT_H15 Y_0 synapse
Xweight_J1_H15 WWL_J1 WBL_OUT_H15 OUT_H15 Y_1 synapse
Xoptim_IN_H15 WBL_IN_H15 FREE NUDGED UPDATE NUDGED_OUTER optimizer100
Sset_IN_H15 SET_IN_H15 WBL_IN_H15 SET 0 switch
SGND_IN_H15 IN_H15 0 SET 0 switch
Xoptim_OUT_H15 WBL_OUT_H15 FREE NUDGED UPDATE NUDGED_OUTER optimizer1
Sset_OUT_H15 SET_OUT_H15 WBL_OUT_H15 SET 0 switch
SGND_OUT_H15 OUT_H15 0 SET 0 switch
SY_0_NUDGED Y_0 Y_0_NUDGED NUDGED_OUTER 0 switch
SY_0_FREE Y_0 Y_0_FREE FREE 0 switch
CY_0_FREE Y_0_FREE 0 0.05pF capacitor
RY_0 Y_0 0 10kOhm
SY_1_NUDGED Y_1 Y_1_NUDGED NUDGED_OUTER 0 switch
SY_1_FREE Y_1 Y_1_FREE FREE 0 switch
CY_1_FREE Y_1_FREE 0 0.05pF capacitor
RY_1 Y_1 0 10kOhm
VSET_IN_H0 SET_IN_H0 0 PWL(0ns 0V 200000.0ns 0V 240000.0ns 0.3237684667110443V 640000.0ns 0.3237684667110443V 680000.0ns 0V 1080000.0ns 0V 1120000.0ns 0.28780242800712585V 1520000.0ns 0.28780242800712585V 1560000.0ns 0V 1960000.0ns 0V 2000000.0ns 0.3352009356021881V 2400000.0ns 0.3352009356021881V 2440000.0ns 0V)
VSET_OUT_H0 SET_OUT_H0 0 PWL(0ns 0V 200000.0ns 0V 240000.0ns 0.2941342294216156V 640000.0ns 0.2941342294216156V 680000.0ns 0V 1080000.0ns 0V 1120000.0ns 0.4893910884857178V 1520000.0ns 0.4893910884857178V 1560000.0ns 0V 1960000.0ns 0V 2000000.0ns 0V 2400000.0ns 0V 2440000.0ns 0V)
VSET_IN_H1 SET_IN_H1 0 PWL(0ns 0V 200000.0ns 0V 240000.0ns 0.17695865035057068V 640000.0ns 0.17695865035057068V 680000.0ns 0V 1080000.0ns 0V 1120000.0ns 0.18991950154304504V 1520000.0ns 0.18991950154304504V 1560000.0ns 0V 1960000.0ns 0V 2000000.0ns 0.47444629669189453V 2400000.0ns 0.47444629669189453V 2440000.0ns 0V)
VSET_OUT_H1 SET_OUT_H1 0 PWL(0ns 0V 200000.0ns 0V 240000.0ns 0.1070721372961998V 640000.0ns 0.1070721372961998V 680000.0ns 0V 1080000.0ns 0V 1120000.0ns 0.2985629141330719V 1520000.0ns 0.2985629141330719V 1560000.0ns 0V 1960000.0ns 0V 2000000.0ns 0V 2400000.0ns 0V 2440000.0ns 0V)
VSET_IN_H2 SET_IN_H2 0 PWL(0ns 0V 200000.0ns 0V 240000.0ns 0.18539424240589142V 640000.0ns 0.18539424240589142V 680000.0ns 0V 1080000.0ns 0V 1120000.0ns 0.4309855103492737V 1520000.0ns 0.4309855103492737V 1560000.0ns 0V 1960000.0ns 0V 2000000.0ns 0.33240142464637756V 2400000.0ns 0.33240142464637756V 2440000.0ns 0V)
VSET_OUT_H2 SET_OUT_H2 0 PWL(0ns 0V 200000.0ns 0V 240000.0ns 0.3552550673484802V 640000.0ns 0.3552550673484802V 680000.0ns 0V 1080000.0ns 0V 1120000.0ns 0.19294896721839905V 1520000.0ns 0.19294896721839905V 1560000.0ns 0V 1960000.0ns 0V 2000000.0ns 0V 2400000.0ns 0V 2440000.0ns 0V)
VSET_IN_H3 SET_IN_H3 0 PWL(0ns 0V 200000.0ns 0V 240000.0ns 0.24866893887519836V 640000.0ns 0.24866893887519836V 680000.0ns 0V 1080000.0ns 0V 1120000.0ns 0.3644316792488098V 1520000.0ns 0.3644316792488098V 1560000.0ns 0V 1960000.0ns 0V 2000000.0ns 0.154496431350708V 2400000.0ns 0.154496431350708V 2440000.0ns 0V)
VSET_OUT_H3 SET_OUT_H3 0 PWL(0ns 0V 200000.0ns 0V 240000.0ns 0.18904300034046173V 640000.0ns 0.18904300034046173V 680000.0ns 0V 1080000.0ns 0V 1120000.0ns 0.4340851306915283V 1520000.0ns 0.4340851306915283V 1560000.0ns 0V 1960000.0ns 0V 2000000.0ns 0V 2400000.0ns 0V 2440000.0ns 0V)
VSET_IN_H4 SET_IN_H4 0 PWL(0ns 0V 200000.0ns 0V 240000.0ns 0.36711385846138V 640000.0ns 0.36711385846138V 680000.0ns 0V 1080000.0ns 0V 1120000.0ns 0.13436710834503174V 1520000.0ns 0.13436710834503174V 1560000.0ns 0V 1960000.0ns 0V 2000000.0ns 0.18623051047325134V 2400000.0ns 0.18623051047325134V 2440000.0ns 0V)
VSET_OUT_H4 SET_OUT_H4 0 PWL(0ns 0V 200000.0ns 0V 240000.0ns 0.17669212818145752V 640000.0ns 0.17669212818145752V 680000.0ns 0V 1080000.0ns 0V 1120000.0ns 0.46766600012779236V 1520000.0ns 0.46766600012779236V 1560000.0ns 0V 1960000.0ns 0V 2000000.0ns 0V 2400000.0ns 0V 2440000.0ns 0V)
VSET_IN_H5 SET_IN_H5 0 PWL(0ns 0V 200000.0ns 0V 240000.0ns 0.3603936433792114V 640000.0ns 0.3603936433792114V 680000.0ns 0V 1080000.0ns 0V 1120000.0ns 0.31234630942344666V 1520000.0ns 0.31234630942344666V 1560000.0ns 0V 1960000.0ns 0V 2000000.0ns 0.20562931895256042V 2400000.0ns 0.20562931895256042V 2440000.0ns 0V)
VSET_OUT_H5 SET_OUT_H5 0 PWL(0ns 0V 200000.0ns 0V 240000.0ns 0.282827764749527V 640000.0ns 0.282827764749527V 680000.0ns 0V 1080000.0ns 0V 1120000.0ns 0.20167246460914612V 1520000.0ns 0.20167246460914612V 1560000.0ns 0V 1960000.0ns 0V 2000000.0ns 0V 2400000.0ns 0V 2440000.0ns 0V)
VSET_IN_H6 SET_IN_H6 0 PWL(0ns 0V 200000.0ns 0V 240000.0ns 0.268454372882843V 640000.0ns 0.268454372882843V 680000.0ns 0V 1080000.0ns 0V 1120000.0ns 0.41979044675827026V 1520000.0ns 0.41979044675827026V 1560000.0ns 0V 1960000.0ns 0V 2000000.0ns 0.3936837613582611V 2400000.0ns 0.3936837613582611V 2440000.0ns 0V)
VSET_OUT_H6 SET_OUT_H6 0 PWL(0ns 0V 200000.0ns 0V 240000.0ns 0.39986422657966614V 640000.0ns 0.39986422657966614V 680000.0ns 0V 1080000.0ns 0V 1120000.0ns 0.1662781983613968V 1520000.0ns 0.1662781983613968V 1560000.0ns 0V 1960000.0ns 0V 2000000.0ns 0V 2400000.0ns 0V 2440000.0ns 0V)
VSET_IN_H7 SET_IN_H7 0 PWL(0ns 0V 200000.0ns 0V 240000.0ns 0.3497702479362488V 640000.0ns 0.3497702479362488V 680000.0ns 0V 1080000.0ns 0V 1120000.0ns 0.35625243186950684V 1520000.0ns 0.35625243186950684V 1560000.0ns 0V 1960000.0ns 0V 2000000.0ns 0.20707571506500244V 2400000.0ns 0.20707571506500244V 2440000.0ns 0V)
VSET_OUT_H7 SET_OUT_H7 0 PWL(0ns 0V 200000.0ns 0V 240000.0ns 0.30827999114990234V 640000.0ns 0.30827999114990234V 680000.0ns 0V 1080000.0ns 0V 1120000.0ns 0.44093620777130127V 1520000.0ns 0.44093620777130127V 1560000.0ns 0V 1960000.0ns 0V 2000000.0ns 0V 2400000.0ns 0V 2440000.0ns 0V)
VSET_IN_H8 SET_IN_H8 0 PWL(0ns 0V 200000.0ns 0V 240000.0ns 0.49417197704315186V 640000.0ns 0.49417197704315186V 680000.0ns 0V 1080000.0ns 0V 1120000.0ns 0.16059112548828125V 1520000.0ns 0.16059112548828125V 1560000.0ns 0V 1960000.0ns 0V 2000000.0ns 0.17716260254383087V 2400000.0ns 0.17716260254383087V 2440000.0ns 0V)
VSET_OUT_H8 SET_OUT_H8 0 PWL(0ns 0V 200000.0ns 0V 240000.0ns 0.3837760090827942V 640000.0ns 0.3837760090827942V 680000.0ns 0V 1080000.0ns 0V 1120000.0ns 0.3614835739135742V 1520000.0ns 0.3614835739135742V 1560000.0ns 0V 1960000.0ns 0V 2000000.0ns 0V 2400000.0ns 0V 2440000.0ns 0V)
VSET_IN_H9 SET_IN_H9 0 PWL(0ns 0V 200000.0ns 0V 240000.0ns 0.2293718457221985V 640000.0ns 0.2293718457221985V 680000.0ns 0V 1080000.0ns 0V 1120000.0ns 0.2944580018520355V 1520000.0ns 0.2944580018520355V 1560000.0ns 0V 1960000.0ns 0V 2000000.0ns 0.39146584272384644V 2400000.0ns 0.39146584272384644V 2440000.0ns 0V)
VSET_OUT_H9 SET_OUT_H9 0 PWL(0ns 0V 200000.0ns 0V 240000.0ns 0.46183472871780396V 640000.0ns 0.46183472871780396V 680000.0ns 0V 1080000.0ns 0V 1120000.0ns 0.38461968302726746V 1520000.0ns 0.38461968302726746V 1560000.0ns 0V 1960000.0ns 0V 2000000.0ns 0V 2400000.0ns 0V 2440000.0ns 0V)
VSET_IN_H10 SET_IN_H10 0 PWL(0ns 0V 200000.0ns 0V 240000.0ns 0.37664541602134705V 640000.0ns 0.37664541602134705V 680000.0ns 0V 1080000.0ns 0V 1120000.0ns 0.12331042438745499V 1520000.0ns 0.12331042438745499V 1560000.0ns 0V 1960000.0ns 0V 2000000.0ns 0.19100043177604675V 2400000.0ns 0.19100043177604675V 2440000.0ns 0V)
VSET_OUT_H10 SET_OUT_H10 0 PWL(0ns 0V 200000.0ns 0V 240000.0ns 0.3277418911457062V 640000.0ns 0.3277418911457062V 680000.0ns 0V 1080000.0ns 0V 1120000.0ns 0.3207624852657318V 1520000.0ns 0.3207624852657318V 1560000.0ns 0V 1960000.0ns 0V 2000000.0ns 0V 2400000.0ns 0V 2440000.0ns 0V)
VSET_IN_H11 SET_IN_H11 0 PWL(0ns 0V 200000.0ns 0V 240000.0ns 0.17984595894813538V 640000.0ns 0.17984595894813538V 680000.0ns 0V 1080000.0ns 0V 1120000.0ns 0.2194565236568451V 1520000.0ns 0.2194565236568451V 1560000.0ns 0V 1960000.0ns 0V 2000000.0ns 0.2143402397632599V 2400000.0ns 0.2143402397632599V 2440000.0ns 0V)
VSET_OUT_H11 SET_OUT_H11 0 PWL(0ns 0V 200000.0ns 0V 240000.0ns 0.34952303767204285V 640000.0ns 0.34952303767204285V 680000.0ns 0V 1080000.0ns 0V 1120000.0ns 0.4432114064693451V 1520000.0ns 0.4432114064693451V 1560000.0ns 0V 1960000.0ns 0V 2000000.0ns 0V 2400000.0ns 0V 2440000.0ns 0V)
VSET_IN_H12 SET_IN_H12 0 PWL(0ns 0V 200000.0ns 0V 240000.0ns 0.2933448255062103V 640000.0ns 0.2933448255062103V 680000.0ns 0V 1080000.0ns 0V 1120000.0ns 0.11042072623968124V 1520000.0ns 0.11042072623968124V 1560000.0ns 0V 1960000.0ns 0V 2000000.0ns 0.49986961483955383V 2400000.0ns 0.49986961483955383V 2440000.0ns 0V)
VSET_OUT_H12 SET_OUT_H12 0 PWL(0ns 0V 200000.0ns 0V 240000.0ns 0.4447947144508362V 640000.0ns 0.4447947144508362V 680000.0ns 0V 1080000.0ns 0V 1120000.0ns 0.12481585144996643V 1520000.0ns 0.12481585144996643V 1560000.0ns 0V 1960000.0ns 0V 2000000.0ns 0V 2400000.0ns 0V 2440000.0ns 0V)
VSET_IN_H13 SET_IN_H13 0 PWL(0ns 0V 200000.0ns 0V 240000.0ns 0.3627299666404724V 640000.0ns 0.3627299666404724V 680000.0ns 0V 1080000.0ns 0V 1120000.0ns 0.10622155666351318V 1520000.0ns 0.10622155666351318V 1560000.0ns 0V 1960000.0ns 0V 2000000.0ns 0.12430758774280548V 2400000.0ns 0.12430758774280548V 2440000.0ns 0V)
VSET_OUT_H13 SET_OUT_H13 0 PWL(0ns 0V 200000.0ns 0V 240000.0ns 0.2213345319032669V 640000.0ns 0.2213345319032669V 680000.0ns 0V 1080000.0ns 0V 1120000.0ns 0.13766613602638245V 1520000.0ns 0.13766613602638245V 1560000.0ns 0V 1960000.0ns 0V 2000000.0ns 0V 2400000.0ns 0V 2440000.0ns 0V)
VSET_IN_H14 SET_IN_H14 0 PWL(0ns 0V 200000.0ns 0V 240000.0ns 0.20897206664085388V 640000.0ns 0.20897206664085388V 680000.0ns 0V 1080000.0ns 0V 1120000.0ns 0.46652302145957947V 1520000.0ns 0.46652302145957947V 1560000.0ns 0V 1960000.0ns 0V 2000000.0ns 0.4699414372444153V 2400000.0ns 0.4699414372444153V 2440000.0ns 0V)
VSET_OUT_H14 SET_OUT_H14 0 PWL(0ns 0V 200000.0ns 0V 240000.0ns 0.4986300766468048V 640000.0ns 0.4986300766468048V 680000.0ns 0V 1080000.0ns 0V 1120000.0ns 0.4820975363254547V 1520000.0ns 0.4820975363254547V 1560000.0ns 0V 1960000.0ns 0V 2000000.0ns 0V 2400000.0ns 0V 2440000.0ns 0V)
VSET_IN_H15 SET_IN_H15 0 PWL(0ns 0V 200000.0ns 0V 240000.0ns 0.15766611695289612V 640000.0ns 0.15766611695289612V 680000.0ns 0V 1080000.0ns 0V 1120000.0ns 0.20440998673439026V 1520000.0ns 0.20440998673439026V 1560000.0ns 0V 1960000.0ns 0V 2000000.0ns 0.3871707320213318V 2400000.0ns 0.3871707320213318V 2440000.0ns 0V)
VSET_OUT_H15 SET_OUT_H15 0 PWL(0ns 0V 200000.0ns 0V 240000.0ns 0.3147434890270233V 640000.0ns 0.3147434890270233V 680000.0ns 0V 1080000.0ns 0V 1120000.0ns 0.4686463475227356V 1520000.0ns 0.4686463475227356V 1560000.0ns 0V 1960000.0ns 0V 2000000.0ns 0V 2400000.0ns 0V 2440000.0ns 0V)
VSET SET 0 PWL(0ns 1.95V 3080000.0ns 1.95V 3120000.0ns 0V)